
---------- Begin Simulation Statistics ----------
simSeconds                                   0.108338                       # Number of seconds simulated (Second)
simTicks                                 108338390000                       # Number of ticks simulated (Tick)
finalTick                                108338390000                       # Number of ticks from beginning of simulation (restored from checkpoints and never reset) (Tick)
simFreq                                  1000000000000                       # The number of ticks per simulated second ((Tick/Second))
hostSeconds                                    168.93                       # Real time elapsed on the host (Second)
hostTickRate                                641309794                       # The number of ticks simulated per host second (ticks/s) ((Tick/Second))
hostMemory                                    2779680                       # Number of bytes of host memory used (Byte)
simInsts                                     35152960                       # Number of instructions simulated (Count)
simOps                                       65913853                       # Number of ops (including micro ops) simulated (Count)
hostInstRate                                   208088                       # Simulator instruction rate (inst/s) ((Count/Second))
hostOpRate                                     390177                       # Simulator op (including micro ops) rate (op/s) ((Count/Second))
system.clk_domain.clock                          1000                       # Clock period in ticks (Tick)
system.cpu0.numCycles                       216676779                       # Number of cpu cycles simulated (Cycle)
system.cpu0.cpi                              6.445424                       # CPI: cycles per instruction (core level) ((Cycle/Count))
system.cpu0.ipc                              0.155149                       # IPC: instructions per cycle (core level) ((Count/Cycle))
system.cpu0.numWorkItemsStarted                     0                       # Number of work items this cpu started (Count)
system.cpu0.numWorkItemsCompleted                   0                       # Number of work items this cpu completed (Count)
system.cpu0.clk_domain.clock                      500                       # Clock period in ticks (Tick)
system.cpu0.clk_domain.voltage_domain.voltage            1                       # Voltage in Volts (Volt)
system.cpu0.commitStats0.numInsts            33617150                       # Number of instructions committed (thread level) (Count)
system.cpu0.commitStats0.numOps              62817716                       # Number of ops (including micro ops) committed (thread level) (Count)
system.cpu0.commitStats0.numInstsNotNOP             0                       # Number of instructions committed excluding NOPs or prefetches (Count)
system.cpu0.commitStats0.numOpsNotNOP               0                       # Number of Ops (including micro ops) Simulated (Count)
system.cpu0.commitStats0.cpi                 6.445424                       # CPI: cycles per instruction (thread level) ((Cycle/Count))
system.cpu0.commitStats0.ipc                 0.155149                       # IPC: instructions per cycle (thread level) ((Count/Cycle))
system.cpu0.commitStats0.numMemRefs                 0                       # Number of memory references committed (Count)
system.cpu0.commitStats0.numFpInsts           3360150                       # Number of float instructions (Count)
system.cpu0.commitStats0.numIntInsts         59828157                       # Number of integer instructions (Count)
system.cpu0.commitStats0.numLoadInsts         8834678                       # Number of load instructions (Count)
system.cpu0.commitStats0.numStoreInsts        3763340                       # Number of store instructions (Count)
system.cpu0.commitStats0.numVecInsts                0                       # Number of vector instructions (Count)
system.cpu0.commitStats0.committedInstType::No_OpClass       750111      1.19%      1.19% # Class of committed instruction. (Count)
system.cpu0.commitStats0.committedInstType::IntAlu     46653889     74.27%     75.46% # Class of committed instruction. (Count)
system.cpu0.commitStats0.committedInstType::IntMult       622136      0.99%     76.45% # Class of committed instruction. (Count)
system.cpu0.commitStats0.committedInstType::IntDiv        86739      0.14%     76.59% # Class of committed instruction. (Count)
system.cpu0.commitStats0.committedInstType::FloatAdd       201124      0.32%     76.91% # Class of committed instruction. (Count)
system.cpu0.commitStats0.committedInstType::FloatCmp           31      0.00%     76.91% # Class of committed instruction. (Count)
system.cpu0.commitStats0.committedInstType::FloatCvt         6576      0.01%     76.92% # Class of committed instruction. (Count)
system.cpu0.commitStats0.committedInstType::FloatMult           15      0.00%     76.92% # Class of committed instruction. (Count)
system.cpu0.commitStats0.committedInstType::FloatMultAcc            0      0.00%     76.92% # Class of committed instruction. (Count)
system.cpu0.commitStats0.committedInstType::FloatDiv           15      0.00%     76.92% # Class of committed instruction. (Count)
system.cpu0.commitStats0.committedInstType::FloatMisc            0      0.00%     76.92% # Class of committed instruction. (Count)
system.cpu0.commitStats0.committedInstType::FloatSqrt            0      0.00%     76.92% # Class of committed instruction. (Count)
system.cpu0.commitStats0.committedInstType::SimdAdd        18756      0.03%     76.95% # Class of committed instruction. (Count)
system.cpu0.commitStats0.committedInstType::SimdAddAcc            0      0.00%     76.95% # Class of committed instruction. (Count)
system.cpu0.commitStats0.committedInstType::SimdAlu       624350      0.99%     77.95% # Class of committed instruction. (Count)
system.cpu0.commitStats0.committedInstType::SimdCmp         3210      0.01%     77.95% # Class of committed instruction. (Count)
system.cpu0.commitStats0.committedInstType::SimdCvt        76614      0.12%     78.07% # Class of committed instruction. (Count)
system.cpu0.commitStats0.committedInstType::SimdMisc       349573      0.56%     78.63% # Class of committed instruction. (Count)
system.cpu0.commitStats0.committedInstType::SimdMult            0      0.00%     78.63% # Class of committed instruction. (Count)
system.cpu0.commitStats0.committedInstType::SimdMultAcc            0      0.00%     78.63% # Class of committed instruction. (Count)
system.cpu0.commitStats0.committedInstType::SimdMatMultAcc            0      0.00%     78.63% # Class of committed instruction. (Count)
system.cpu0.commitStats0.committedInstType::SimdShift         8080      0.01%     78.64% # Class of committed instruction. (Count)
system.cpu0.commitStats0.committedInstType::SimdShiftAcc            0      0.00%     78.64% # Class of committed instruction. (Count)
system.cpu0.commitStats0.committedInstType::SimdDiv            0      0.00%     78.64% # Class of committed instruction. (Count)
system.cpu0.commitStats0.committedInstType::SimdSqrt            0      0.00%     78.64% # Class of committed instruction. (Count)
system.cpu0.commitStats0.committedInstType::SimdFloatAdd        90932      0.14%     78.79% # Class of committed instruction. (Count)
system.cpu0.commitStats0.committedInstType::SimdFloatAlu            0      0.00%     78.79% # Class of committed instruction. (Count)
system.cpu0.commitStats0.committedInstType::SimdFloatCmp            0      0.00%     78.79% # Class of committed instruction. (Count)
system.cpu0.commitStats0.committedInstType::SimdFloatCvt       545653      0.87%     79.66% # Class of committed instruction. (Count)
system.cpu0.commitStats0.committedInstType::SimdFloatDiv            5      0.00%     79.66% # Class of committed instruction. (Count)
system.cpu0.commitStats0.committedInstType::SimdFloatMisc            0      0.00%     79.66% # Class of committed instruction. (Count)
system.cpu0.commitStats0.committedInstType::SimdFloatMult       181889      0.29%     79.95% # Class of committed instruction. (Count)
system.cpu0.commitStats0.committedInstType::SimdFloatMultAcc            0      0.00%     79.95% # Class of committed instruction. (Count)
system.cpu0.commitStats0.committedInstType::SimdFloatMatMultAcc            0      0.00%     79.95% # Class of committed instruction. (Count)
system.cpu0.commitStats0.committedInstType::SimdFloatSqrt            0      0.00%     79.95% # Class of committed instruction. (Count)
system.cpu0.commitStats0.committedInstType::SimdReduceAdd            0      0.00%     79.95% # Class of committed instruction. (Count)
system.cpu0.commitStats0.committedInstType::SimdReduceAlu            0      0.00%     79.95% # Class of committed instruction. (Count)
system.cpu0.commitStats0.committedInstType::SimdReduceCmp            0      0.00%     79.95% # Class of committed instruction. (Count)
system.cpu0.commitStats0.committedInstType::SimdFloatReduceAdd            0      0.00%     79.95% # Class of committed instruction. (Count)
system.cpu0.commitStats0.committedInstType::SimdFloatReduceCmp            0      0.00%     79.95% # Class of committed instruction. (Count)
system.cpu0.commitStats0.committedInstType::SimdAes            0      0.00%     79.95% # Class of committed instruction. (Count)
system.cpu0.commitStats0.committedInstType::SimdAesMix            0      0.00%     79.95% # Class of committed instruction. (Count)
system.cpu0.commitStats0.committedInstType::SimdSha1Hash            0      0.00%     79.95% # Class of committed instruction. (Count)
system.cpu0.commitStats0.committedInstType::SimdSha1Hash2            0      0.00%     79.95% # Class of committed instruction. (Count)
system.cpu0.commitStats0.committedInstType::SimdSha256Hash            0      0.00%     79.95% # Class of committed instruction. (Count)
system.cpu0.commitStats0.committedInstType::SimdSha256Hash2            0      0.00%     79.95% # Class of committed instruction. (Count)
system.cpu0.commitStats0.committedInstType::SimdShaSigma2            0      0.00%     79.95% # Class of committed instruction. (Count)
system.cpu0.commitStats0.committedInstType::SimdShaSigma3            0      0.00%     79.95% # Class of committed instruction. (Count)
system.cpu0.commitStats0.committedInstType::SimdPredAlu            0      0.00%     79.95% # Class of committed instruction. (Count)
system.cpu0.commitStats0.committedInstType::Matrix            0      0.00%     79.95% # Class of committed instruction. (Count)
system.cpu0.commitStats0.committedInstType::MatrixMov            0      0.00%     79.95% # Class of committed instruction. (Count)
system.cpu0.commitStats0.committedInstType::MatrixOP            0      0.00%     79.95% # Class of committed instruction. (Count)
system.cpu0.commitStats0.committedInstType::MemRead      8013549     12.76%     92.70% # Class of committed instruction. (Count)
system.cpu0.commitStats0.committedInstType::MemWrite      3523823      5.61%     98.31% # Class of committed instruction. (Count)
system.cpu0.commitStats0.committedInstType::FloatMemRead       821129      1.31%     99.62% # Class of committed instruction. (Count)
system.cpu0.commitStats0.committedInstType::FloatMemWrite       239517      0.38%    100.00% # Class of committed instruction. (Count)
system.cpu0.commitStats0.committedInstType::IprAccess            0      0.00%    100.00% # Class of committed instruction. (Count)
system.cpu0.commitStats0.committedInstType::InstPrefetch            0      0.00%    100.00% # Class of committed instruction. (Count)
system.cpu0.commitStats0.committedInstType::SimdUnitStrideLoad            0      0.00%    100.00% # Class of committed instruction. (Count)
system.cpu0.commitStats0.committedInstType::SimdUnitStrideStore            0      0.00%    100.00% # Class of committed instruction. (Count)
system.cpu0.commitStats0.committedInstType::SimdUnitStrideMaskLoad            0      0.00%    100.00% # Class of committed instruction. (Count)
system.cpu0.commitStats0.committedInstType::SimdUnitStrideMaskStore            0      0.00%    100.00% # Class of committed instruction. (Count)
system.cpu0.commitStats0.committedInstType::SimdStridedLoad            0      0.00%    100.00% # Class of committed instruction. (Count)
system.cpu0.commitStats0.committedInstType::SimdStridedStore            0      0.00%    100.00% # Class of committed instruction. (Count)
system.cpu0.commitStats0.committedInstType::SimdIndexedLoad            0      0.00%    100.00% # Class of committed instruction. (Count)
system.cpu0.commitStats0.committedInstType::SimdIndexedStore            0      0.00%    100.00% # Class of committed instruction. (Count)
system.cpu0.commitStats0.committedInstType::SimdWholeRegisterLoad            0      0.00%    100.00% # Class of committed instruction. (Count)
system.cpu0.commitStats0.committedInstType::SimdWholeRegisterStore            0      0.00%    100.00% # Class of committed instruction. (Count)
system.cpu0.commitStats0.committedInstType::SimdUnitStrideFaultOnlyFirstLoad            0      0.00%    100.00% # Class of committed instruction. (Count)
system.cpu0.commitStats0.committedInstType::SimdUnitStrideSegmentedLoad            0      0.00%    100.00% # Class of committed instruction. (Count)
system.cpu0.commitStats0.committedInstType::SimdUnitStrideSegmentedStore            0      0.00%    100.00% # Class of committed instruction. (Count)
system.cpu0.commitStats0.committedInstType::SimdExt            0      0.00%    100.00% # Class of committed instruction. (Count)
system.cpu0.commitStats0.committedInstType::SimdFloatExt            0      0.00%    100.00% # Class of committed instruction. (Count)
system.cpu0.commitStats0.committedInstType::SimdConfig            0      0.00%    100.00% # Class of committed instruction. (Count)
system.cpu0.commitStats0.committedInstType::total     62817716                       # Class of committed instruction. (Count)
system.cpu0.commitStats0.committedControl::IsControl      6505139                       # Class of control type instructions committed (Count)
system.cpu0.commitStats0.committedControl::IsDirectControl      5700774                       # Class of control type instructions committed (Count)
system.cpu0.commitStats0.committedControl::IsIndirectControl       803113                       # Class of control type instructions committed (Count)
system.cpu0.commitStats0.committedControl::IsCondControl      4727449                       # Class of control type instructions committed (Count)
system.cpu0.commitStats0.committedControl::IsUncondControl      1776438                       # Class of control type instructions committed (Count)
system.cpu0.commitStats0.committedControl::IsCall       465333                       # Class of control type instructions committed (Count)
system.cpu0.commitStats0.committedControl::IsReturn       465313                       # Class of control type instructions committed (Count)
system.cpu0.exec_context.thread_0.numMatAluAccesses            0                       # Number of matrix alu accesses (Count)
system.cpu0.exec_context.thread_0.numCallsReturns       930646                       # Number of times a function call or return occured (Count)
system.cpu0.exec_context.thread_0.numMatInsts            0                       # Number of matrix instructions (Count)
system.cpu0.exec_context.thread_0.numIdleCycles 8273585.961740                       # Number of idle cycles (Cycle)
system.cpu0.exec_context.thread_0.numBusyCycles 208403193.038260                       # Number of busy cycles (Cycle)
system.cpu0.exec_context.thread_0.notIdleFraction     0.961816                       # Percentage of non-idle cycles (Ratio)
system.cpu0.exec_context.thread_0.idleFraction     0.038184                       # Percentage of idle cycles (Ratio)
system.cpu0.executeStats0.numInsts                  0                       # Number of executed instructions (Count)
system.cpu0.executeStats0.numNop                    0                       # Number of nop insts executed (Count)
system.cpu0.executeStats0.numBranches               0                       # Number of branches executed (Count)
system.cpu0.executeStats0.numLoadInsts              0                       # Number of load instructions executed (Count)
system.cpu0.executeStats0.numStoreInsts      12598018                       # Number of stores executed (Count)
system.cpu0.executeStats0.instRate                  0                       # Inst execution rate ((Count/Cycle))
system.cpu0.executeStats0.numFpAluAccesses      3360150                       # Number of float alu accesses (Count)
system.cpu0.executeStats0.numFpRegReads       4464690                       # Number of times the floating registers were read (Count)
system.cpu0.executeStats0.numFpRegWrites      2694465                       # Number of times the floating registers were written (Count)
system.cpu0.executeStats0.numIntAluAccesses     59828157                       # Number of integer alu accesses (Count)
system.cpu0.executeStats0.numIntRegReads     71971134                       # Number of times the integer registers were read (Count)
system.cpu0.executeStats0.numIntRegWrites     44562153                       # Number of times the integer registers were written (Count)
system.cpu0.executeStats0.numMemRefs         12598018                       # Number of memory refs (Count)
system.cpu0.executeStats0.numMiscRegReads     25711818                       # Number of times the Misc registers were read (Count)
system.cpu0.executeStats0.numMiscRegWrites         4006                       # Number of times the Misc registers were written (Count)
system.cpu0.executeStats0.numVecAluAccesses            0                       # Number of vector alu accesses (Count)
system.cpu0.executeStats0.numDiscardedOps            0                       # Number of ops (including micro ops) which were discarded before commit (Count)
system.cpu0.fetchStats0.numInsts             33617150                       # Number of instructions fetched (thread level) (Count)
system.cpu0.fetchStats0.numOps               62817716                       # Number of ops (including micro ops) fetched (thread level) (Count)
system.cpu0.fetchStats0.fetchRate            0.155149                       # Number of inst fetches per cycle ((Count/Cycle))
system.cpu0.fetchStats0.numBranches           6505139                       # Number of branches fetched (Count)
system.cpu0.fetchStats0.branchRate           0.030022                       # Number of branch fetches per cycle (Ratio)
system.cpu0.fetchStats0.numFetchSuspends            0                       # Number of times Execute suspended instruction fetching (Count)
system.cpu0.interrupts.clk_domain.clock          8000                       # Clock period in ticks (Tick)
system.cpu0.mmu.dtb.rdAccesses                8841790                       # TLB accesses on read requests (Count)
system.cpu0.mmu.dtb.wrAccesses                3765835                       # TLB accesses on write requests (Count)
system.cpu0.mmu.dtb.rdMisses                    11737                       # TLB misses on read requests (Count)
system.cpu0.mmu.dtb.wrMisses                     3624                       # TLB misses on write requests (Count)
system.cpu0.mmu.dtb.walker.power_state.pwrStateResidencyTicks::UNDEFINED 108338390000                       # Cumulative time (in ticks) in various power states (Tick)
system.cpu0.mmu.itb.rdAccesses                      0                       # TLB accesses on read requests (Count)
system.cpu0.mmu.itb.wrAccesses               46439291                       # TLB accesses on write requests (Count)
system.cpu0.mmu.itb.rdMisses                        0                       # TLB misses on read requests (Count)
system.cpu0.mmu.itb.wrMisses                     3656                       # TLB misses on write requests (Count)
system.cpu0.mmu.itb.walker.power_state.pwrStateResidencyTicks::UNDEFINED 108338390000                       # Cumulative time (in ticks) in various power states (Tick)
system.cpu0.power_state.numTransitions              6                       # Number of power state transitions (Count)
system.cpu0.power_state.ticksClkGated::samples            3                       # Distribution of time spent in the clock gated state (Tick)
system.cpu0.power_state.ticksClkGated::mean   1378931000                       # Distribution of time spent in the clock gated state (Tick)
system.cpu0.power_state.ticksClkGated::stdev 2292139451.443618                       # Distribution of time spent in the clock gated state (Tick)
system.cpu0.power_state.ticksClkGated::1000-5e+10            3    100.00%    100.00% # Distribution of time spent in the clock gated state (Tick)
system.cpu0.power_state.ticksClkGated::min_value     36637500                       # Distribution of time spent in the clock gated state (Tick)
system.cpu0.power_state.ticksClkGated::max_value   4025575000                       # Distribution of time spent in the clock gated state (Tick)
system.cpu0.power_state.ticksClkGated::total            3                       # Distribution of time spent in the clock gated state (Tick)
system.cpu0.power_state.pwrStateResidencyTicks::ON 104201597000                       # Cumulative time (in ticks) in various power states (Tick)
system.cpu0.power_state.pwrStateResidencyTicks::CLK_GATED   4136793000                       # Cumulative time (in ticks) in various power states (Tick)
system.cpu0.thread_0.numInsts                       0                       # Number of Instructions committed (Count)
system.cpu0.thread_0.numOps                         0                       # Number of Ops committed (Count)
system.cpu0.thread_0.numMemRefs                     0                       # Number of Memory References (Count)
system.cpu0.workload.numSyscalls               211871                       # Number of system calls (Count)
system.cpu0.workload.drivers0.device.dispatcher.numKernelLaunched            1                       # number of kernel launched (Unspecified)
system.cpu0.workload.drivers0.device.dispatcher.cyclesWaitingForDispatch         4016                       # number of cycles with outstanding wavefronts that are waiting to be dispatched (Unspecified)
system.cpu0.workload.drivers0.device.hsapp.power_state.pwrStateResidencyTicks::UNDEFINED 108338390000                       # Cumulative time (in ticks) in various power states (Tick)
system.cpu0.workload.drivers0.device.hsapp.walker.power_state.pwrStateResidencyTicks::UNDEFINED 108338390000                       # Cumulative time (in ticks) in various power states (Tick)
system.cpu0.workload.drivers0.device.power_state.pwrStateResidencyTicks::UNDEFINED 108338390000                       # Cumulative time (in ticks) in various power states (Tick)
system.cpu0.workload.drivers0.device.walker.power_state.pwrStateResidencyTicks::UNDEFINED 108338390000                       # Cumulative time (in ticks) in various power states (Tick)
system.cpu1.numCycles                       202290139                       # Number of cpu cycles simulated (Cycle)
system.cpu1.cpi                            589.682929                       # CPI: cycles per instruction (core level) ((Cycle/Count))
system.cpu1.ipc                              0.001696                       # IPC: instructions per cycle (core level) ((Count/Cycle))
system.cpu1.numWorkItemsStarted                     0                       # Number of work items this cpu started (Count)
system.cpu1.numWorkItemsCompleted                   0                       # Number of work items this cpu completed (Count)
system.cpu1.clk_domain.clock                      500                       # Clock period in ticks (Tick)
system.cpu1.clk_domain.voltage_domain.voltage            1                       # Voltage in Volts (Volt)
system.cpu1.commitStats0.numInsts              343049                       # Number of instructions committed (thread level) (Count)
system.cpu1.commitStats0.numOps                646997                       # Number of ops (including micro ops) committed (thread level) (Count)
system.cpu1.commitStats0.numInstsNotNOP             0                       # Number of instructions committed excluding NOPs or prefetches (Count)
system.cpu1.commitStats0.numOpsNotNOP               0                       # Number of Ops (including micro ops) Simulated (Count)
system.cpu1.commitStats0.cpi               589.682929                       # CPI: cycles per instruction (thread level) ((Cycle/Count))
system.cpu1.commitStats0.ipc                 0.001696                       # IPC: instructions per cycle (thread level) ((Count/Cycle))
system.cpu1.commitStats0.numMemRefs                 0                       # Number of memory references committed (Count)
system.cpu1.commitStats0.numFpInsts             20444                       # Number of float instructions (Count)
system.cpu1.commitStats0.numIntInsts           624707                       # Number of integer instructions (Count)
system.cpu1.commitStats0.numLoadInsts          149312                       # Number of load instructions (Count)
system.cpu1.commitStats0.numStoreInsts          12447                       # Number of store instructions (Count)
system.cpu1.commitStats0.numVecInsts                0                       # Number of vector instructions (Count)
system.cpu1.commitStats0.committedInstType::No_OpClass         9287      1.44%      1.44% # Class of committed instruction. (Count)
system.cpu1.commitStats0.committedInstType::IntAlu       461683     71.36%     72.79% # Class of committed instruction. (Count)
system.cpu1.commitStats0.committedInstType::IntMult            3      0.00%     72.79% # Class of committed instruction. (Count)
system.cpu1.commitStats0.committedInstType::IntDiv           75      0.01%     72.81% # Class of committed instruction. (Count)
system.cpu1.commitStats0.committedInstType::FloatAdd         2890      0.45%     73.25% # Class of committed instruction. (Count)
system.cpu1.commitStats0.committedInstType::FloatCmp            0      0.00%     73.25% # Class of committed instruction. (Count)
system.cpu1.commitStats0.committedInstType::FloatCvt           48      0.01%     73.26% # Class of committed instruction. (Count)
system.cpu1.commitStats0.committedInstType::FloatMult            0      0.00%     73.26% # Class of committed instruction. (Count)
system.cpu1.commitStats0.committedInstType::FloatMultAcc            0      0.00%     73.26% # Class of committed instruction. (Count)
system.cpu1.commitStats0.committedInstType::FloatDiv            0      0.00%     73.26% # Class of committed instruction. (Count)
system.cpu1.commitStats0.committedInstType::FloatMisc            0      0.00%     73.26% # Class of committed instruction. (Count)
system.cpu1.commitStats0.committedInstType::FloatSqrt            0      0.00%     73.26% # Class of committed instruction. (Count)
system.cpu1.commitStats0.committedInstType::SimdAdd           20      0.00%     73.26% # Class of committed instruction. (Count)
system.cpu1.commitStats0.committedInstType::SimdAddAcc            0      0.00%     73.26% # Class of committed instruction. (Count)
system.cpu1.commitStats0.committedInstType::SimdAlu         2786      0.43%     73.69% # Class of committed instruction. (Count)
system.cpu1.commitStats0.committedInstType::SimdCmp            0      0.00%     73.69% # Class of committed instruction. (Count)
system.cpu1.commitStats0.committedInstType::SimdCvt           40      0.01%     73.70% # Class of committed instruction. (Count)
system.cpu1.commitStats0.committedInstType::SimdMisc         1558      0.24%     73.94% # Class of committed instruction. (Count)
system.cpu1.commitStats0.committedInstType::SimdMult            0      0.00%     73.94% # Class of committed instruction. (Count)
system.cpu1.commitStats0.committedInstType::SimdMultAcc            0      0.00%     73.94% # Class of committed instruction. (Count)
system.cpu1.commitStats0.committedInstType::SimdMatMultAcc            0      0.00%     73.94% # Class of committed instruction. (Count)
system.cpu1.commitStats0.committedInstType::SimdShift           21      0.00%     73.94% # Class of committed instruction. (Count)
system.cpu1.commitStats0.committedInstType::SimdShiftAcc            0      0.00%     73.94% # Class of committed instruction. (Count)
system.cpu1.commitStats0.committedInstType::SimdDiv            0      0.00%     73.94% # Class of committed instruction. (Count)
system.cpu1.commitStats0.committedInstType::SimdSqrt            0      0.00%     73.94% # Class of committed instruction. (Count)
system.cpu1.commitStats0.committedInstType::SimdFloatAdd         1365      0.21%     74.15% # Class of committed instruction. (Count)
system.cpu1.commitStats0.committedInstType::SimdFloatAlu            0      0.00%     74.15% # Class of committed instruction. (Count)
system.cpu1.commitStats0.committedInstType::SimdFloatCmp            0      0.00%     74.15% # Class of committed instruction. (Count)
system.cpu1.commitStats0.committedInstType::SimdFloatCvt         4089      0.63%     74.79% # Class of committed instruction. (Count)
system.cpu1.commitStats0.committedInstType::SimdFloatDiv            7      0.00%     74.79% # Class of committed instruction. (Count)
system.cpu1.commitStats0.committedInstType::SimdFloatMisc            0      0.00%     74.79% # Class of committed instruction. (Count)
system.cpu1.commitStats0.committedInstType::SimdFloatMult         1366      0.21%     75.00% # Class of committed instruction. (Count)
system.cpu1.commitStats0.committedInstType::SimdFloatMultAcc            0      0.00%     75.00% # Class of committed instruction. (Count)
system.cpu1.commitStats0.committedInstType::SimdFloatMatMultAcc            0      0.00%     75.00% # Class of committed instruction. (Count)
system.cpu1.commitStats0.committedInstType::SimdFloatSqrt            0      0.00%     75.00% # Class of committed instruction. (Count)
system.cpu1.commitStats0.committedInstType::SimdReduceAdd            0      0.00%     75.00% # Class of committed instruction. (Count)
system.cpu1.commitStats0.committedInstType::SimdReduceAlu            0      0.00%     75.00% # Class of committed instruction. (Count)
system.cpu1.commitStats0.committedInstType::SimdReduceCmp            0      0.00%     75.00% # Class of committed instruction. (Count)
system.cpu1.commitStats0.committedInstType::SimdFloatReduceAdd            0      0.00%     75.00% # Class of committed instruction. (Count)
system.cpu1.commitStats0.committedInstType::SimdFloatReduceCmp            0      0.00%     75.00% # Class of committed instruction. (Count)
system.cpu1.commitStats0.committedInstType::SimdAes            0      0.00%     75.00% # Class of committed instruction. (Count)
system.cpu1.commitStats0.committedInstType::SimdAesMix            0      0.00%     75.00% # Class of committed instruction. (Count)
system.cpu1.commitStats0.committedInstType::SimdSha1Hash            0      0.00%     75.00% # Class of committed instruction. (Count)
system.cpu1.commitStats0.committedInstType::SimdSha1Hash2            0      0.00%     75.00% # Class of committed instruction. (Count)
system.cpu1.commitStats0.committedInstType::SimdSha256Hash            0      0.00%     75.00% # Class of committed instruction. (Count)
system.cpu1.commitStats0.committedInstType::SimdSha256Hash2            0      0.00%     75.00% # Class of committed instruction. (Count)
system.cpu1.commitStats0.committedInstType::SimdShaSigma2            0      0.00%     75.00% # Class of committed instruction. (Count)
system.cpu1.commitStats0.committedInstType::SimdShaSigma3            0      0.00%     75.00% # Class of committed instruction. (Count)
system.cpu1.commitStats0.committedInstType::SimdPredAlu            0      0.00%     75.00% # Class of committed instruction. (Count)
system.cpu1.commitStats0.committedInstType::Matrix            0      0.00%     75.00% # Class of committed instruction. (Count)
system.cpu1.commitStats0.committedInstType::MatrixMov            0      0.00%     75.00% # Class of committed instruction. (Count)
system.cpu1.commitStats0.committedInstType::MatrixOP            0      0.00%     75.00% # Class of committed instruction. (Count)
system.cpu1.commitStats0.committedInstType::MemRead       143701     22.21%     97.21% # Class of committed instruction. (Count)
system.cpu1.commitStats0.committedInstType::MemWrite        11950      1.85%     99.06% # Class of committed instruction. (Count)
system.cpu1.commitStats0.committedInstType::FloatMemRead         5611      0.87%     99.92% # Class of committed instruction. (Count)
system.cpu1.commitStats0.committedInstType::FloatMemWrite          497      0.08%    100.00% # Class of committed instruction. (Count)
system.cpu1.commitStats0.committedInstType::IprAccess            0      0.00%    100.00% # Class of committed instruction. (Count)
system.cpu1.commitStats0.committedInstType::InstPrefetch            0      0.00%    100.00% # Class of committed instruction. (Count)
system.cpu1.commitStats0.committedInstType::SimdUnitStrideLoad            0      0.00%    100.00% # Class of committed instruction. (Count)
system.cpu1.commitStats0.committedInstType::SimdUnitStrideStore            0      0.00%    100.00% # Class of committed instruction. (Count)
system.cpu1.commitStats0.committedInstType::SimdUnitStrideMaskLoad            0      0.00%    100.00% # Class of committed instruction. (Count)
system.cpu1.commitStats0.committedInstType::SimdUnitStrideMaskStore            0      0.00%    100.00% # Class of committed instruction. (Count)
system.cpu1.commitStats0.committedInstType::SimdStridedLoad            0      0.00%    100.00% # Class of committed instruction. (Count)
system.cpu1.commitStats0.committedInstType::SimdStridedStore            0      0.00%    100.00% # Class of committed instruction. (Count)
system.cpu1.commitStats0.committedInstType::SimdIndexedLoad            0      0.00%    100.00% # Class of committed instruction. (Count)
system.cpu1.commitStats0.committedInstType::SimdIndexedStore            0      0.00%    100.00% # Class of committed instruction. (Count)
system.cpu1.commitStats0.committedInstType::SimdWholeRegisterLoad            0      0.00%    100.00% # Class of committed instruction. (Count)
system.cpu1.commitStats0.committedInstType::SimdWholeRegisterStore            0      0.00%    100.00% # Class of committed instruction. (Count)
system.cpu1.commitStats0.committedInstType::SimdUnitStrideFaultOnlyFirstLoad            0      0.00%    100.00% # Class of committed instruction. (Count)
system.cpu1.commitStats0.committedInstType::SimdUnitStrideSegmentedLoad            0      0.00%    100.00% # Class of committed instruction. (Count)
system.cpu1.commitStats0.committedInstType::SimdUnitStrideSegmentedStore            0      0.00%    100.00% # Class of committed instruction. (Count)
system.cpu1.commitStats0.committedInstType::SimdExt            0      0.00%    100.00% # Class of committed instruction. (Count)
system.cpu1.commitStats0.committedInstType::SimdFloatExt            0      0.00%    100.00% # Class of committed instruction. (Count)
system.cpu1.commitStats0.committedInstType::SimdConfig            0      0.00%    100.00% # Class of committed instruction. (Count)
system.cpu1.commitStats0.committedInstType::total       646997                       # Class of committed instruction. (Count)
system.cpu1.commitStats0.committedControl::IsControl       108909                       # Class of control type instructions committed (Count)
system.cpu1.commitStats0.committedControl::IsDirectControl        90649                       # Class of control type instructions committed (Count)
system.cpu1.commitStats0.committedControl::IsIndirectControl        18257                       # Class of control type instructions committed (Count)
system.cpu1.commitStats0.committedControl::IsCondControl        90340                       # Class of control type instructions committed (Count)
system.cpu1.commitStats0.committedControl::IsUncondControl        18566                       # Class of control type instructions committed (Count)
system.cpu1.commitStats0.committedControl::IsCall         9161                       # Class of control type instructions committed (Count)
system.cpu1.commitStats0.committedControl::IsReturn         9153                       # Class of control type instructions committed (Count)
system.cpu1.exec_context.thread_0.numMatAluAccesses            0                       # Number of matrix alu accesses (Count)
system.cpu1.exec_context.thread_0.numCallsReturns        18314                       # Number of times a function call or return occured (Count)
system.cpu1.exec_context.thread_0.numMatInsts            0                       # Number of matrix instructions (Count)
system.cpu1.exec_context.thread_0.numIdleCycles 201044741.249354                       # Number of idle cycles (Cycle)
system.cpu1.exec_context.thread_0.numBusyCycles 1245397.750646                       # Number of busy cycles (Cycle)
system.cpu1.exec_context.thread_0.notIdleFraction     0.006156                       # Percentage of non-idle cycles (Ratio)
system.cpu1.exec_context.thread_0.idleFraction     0.993844                       # Percentage of idle cycles (Ratio)
system.cpu1.executeStats0.numInsts                  0                       # Number of executed instructions (Count)
system.cpu1.executeStats0.numNop                    0                       # Number of nop insts executed (Count)
system.cpu1.executeStats0.numBranches               0                       # Number of branches executed (Count)
system.cpu1.executeStats0.numLoadInsts              0                       # Number of load instructions executed (Count)
system.cpu1.executeStats0.numStoreInsts        161759                       # Number of stores executed (Count)
system.cpu1.executeStats0.instRate                  0                       # Inst execution rate ((Count/Cycle))
system.cpu1.executeStats0.numFpAluAccesses        20444                       # Number of float alu accesses (Count)
system.cpu1.executeStats0.numFpRegReads         24605                       # Number of times the floating registers were read (Count)
system.cpu1.executeStats0.numFpRegWrites        17160                       # Number of times the floating registers were written (Count)
system.cpu1.executeStats0.numIntAluAccesses       624707                       # Number of integer alu accesses (Count)
system.cpu1.executeStats0.numIntRegReads       648156                       # Number of times the integer registers were read (Count)
system.cpu1.executeStats0.numIntRegWrites       410281                       # Number of times the integer registers were written (Count)
system.cpu1.executeStats0.numMemRefs           161759                       # Number of memory refs (Count)
system.cpu1.executeStats0.numMiscRegReads       374576                       # Number of times the Misc registers were read (Count)
system.cpu1.executeStats0.numMiscRegWrites           27                       # Number of times the Misc registers were written (Count)
system.cpu1.executeStats0.numVecAluAccesses            0                       # Number of vector alu accesses (Count)
system.cpu1.executeStats0.numDiscardedOps            0                       # Number of ops (including micro ops) which were discarded before commit (Count)
system.cpu1.fetchStats0.numInsts               343049                       # Number of instructions fetched (thread level) (Count)
system.cpu1.fetchStats0.numOps                 646997                       # Number of ops (including micro ops) fetched (thread level) (Count)
system.cpu1.fetchStats0.fetchRate            0.001696                       # Number of inst fetches per cycle ((Count/Cycle))
system.cpu1.fetchStats0.numBranches            108909                       # Number of branches fetched (Count)
system.cpu1.fetchStats0.branchRate           0.000538                       # Number of branch fetches per cycle (Ratio)
system.cpu1.fetchStats0.numFetchSuspends            0                       # Number of times Execute suspended instruction fetching (Count)
system.cpu1.interrupts.clk_domain.clock          8000                       # Clock period in ticks (Tick)
system.cpu1.mmu.dtb.rdAccesses                 149312                       # TLB accesses on read requests (Count)
system.cpu1.mmu.dtb.wrAccesses                  12447                       # TLB accesses on write requests (Count)
system.cpu1.mmu.dtb.rdMisses                      131                       # TLB misses on read requests (Count)
system.cpu1.mmu.dtb.wrMisses                        2                       # TLB misses on write requests (Count)
system.cpu1.mmu.dtb.walker.power_state.pwrStateResidencyTicks::UNDEFINED 108338390000                       # Cumulative time (in ticks) in various power states (Tick)
system.cpu1.mmu.itb.rdAccesses                      0                       # TLB accesses on read requests (Count)
system.cpu1.mmu.itb.wrAccesses                 453821                       # TLB accesses on write requests (Count)
system.cpu1.mmu.itb.rdMisses                        0                       # TLB misses on read requests (Count)
system.cpu1.mmu.itb.wrMisses                       97                       # TLB misses on write requests (Count)
system.cpu1.mmu.itb.walker.power_state.pwrStateResidencyTicks::UNDEFINED 108338390000                       # Cumulative time (in ticks) in various power states (Tick)
system.cpu1.power_state.numTransitions              3                       # Number of power state transitions (Count)
system.cpu1.power_state.ticksClkGated::samples            2                       # Distribution of time spent in the clock gated state (Tick)
system.cpu1.power_state.ticksClkGated::mean   4518134000                       # Distribution of time spent in the clock gated state (Tick)
system.cpu1.power_state.ticksClkGated::stdev 3783285030.177411                       # Distribution of time spent in the clock gated state (Tick)
system.cpu1.power_state.ticksClkGated::1000-5e+10            2    100.00%    100.00% # Distribution of time spent in the clock gated state (Tick)
system.cpu1.power_state.ticksClkGated::min_value   1842947500                       # Distribution of time spent in the clock gated state (Tick)
system.cpu1.power_state.ticksClkGated::max_value   7193320500                       # Distribution of time spent in the clock gated state (Tick)
system.cpu1.power_state.ticksClkGated::total            2                       # Distribution of time spent in the clock gated state (Tick)
system.cpu1.power_state.pwrStateResidencyTicks::ON  99302122000                       # Cumulative time (in ticks) in various power states (Tick)
system.cpu1.power_state.pwrStateResidencyTicks::CLK_GATED   9036268000                       # Cumulative time (in ticks) in various power states (Tick)
system.cpu1.thread_0.numInsts                       0                       # Number of Instructions committed (Count)
system.cpu1.thread_0.numOps                         0                       # Number of Ops committed (Count)
system.cpu1.thread_0.numMemRefs                     0                       # Number of Memory References (Count)
system.cpu2.numCycles                       215530100                       # Number of cpu cycles simulated (Cycle)
system.cpu2.cpi                            152.941314                       # CPI: cycles per instruction (core level) ((Cycle/Count))
system.cpu2.ipc                              0.006538                       # IPC: instructions per cycle (core level) ((Count/Cycle))
system.cpu2.numWorkItemsStarted                     0                       # Number of work items this cpu started (Count)
system.cpu2.numWorkItemsCompleted                   0                       # Number of work items this cpu completed (Count)
system.cpu2.clk_domain.clock                      500                       # Clock period in ticks (Tick)
system.cpu2.clk_domain.voltage_domain.voltage            1                       # Voltage in Volts (Volt)
system.cpu2.commitStats0.numInsts             1409234                       # Number of instructions committed (thread level) (Count)
system.cpu2.commitStats0.numOps               2666432                       # Number of ops (including micro ops) committed (thread level) (Count)
system.cpu2.commitStats0.numInstsNotNOP             0                       # Number of instructions committed excluding NOPs or prefetches (Count)
system.cpu2.commitStats0.numOpsNotNOP               0                       # Number of Ops (including micro ops) Simulated (Count)
system.cpu2.commitStats0.cpi               152.941314                       # CPI: cycles per instruction (thread level) ((Cycle/Count))
system.cpu2.commitStats0.ipc                 0.006538                       # IPC: instructions per cycle (thread level) ((Count/Cycle))
system.cpu2.commitStats0.numMemRefs                 0                       # Number of memory references committed (Count)
system.cpu2.commitStats0.numFpInsts            172039                       # Number of float instructions (Count)
system.cpu2.commitStats0.numIntInsts          2540819                       # Number of integer instructions (Count)
system.cpu2.commitStats0.numLoadInsts          364617                       # Number of load instructions (Count)
system.cpu2.commitStats0.numStoreInsts         267374                       # Number of store instructions (Count)
system.cpu2.commitStats0.numVecInsts                0                       # Number of vector instructions (Count)
system.cpu2.commitStats0.committedInstType::No_OpClass        34947      1.31%      1.31% # Class of committed instruction. (Count)
system.cpu2.commitStats0.committedInstType::IntAlu      1939389     72.73%     74.04% # Class of committed instruction. (Count)
system.cpu2.commitStats0.committedInstType::IntMult         1063      0.04%     74.08% # Class of committed instruction. (Count)
system.cpu2.commitStats0.committedInstType::IntDiv          789      0.03%     74.11% # Class of committed instruction. (Count)
system.cpu2.commitStats0.committedInstType::FloatAdd         9369      0.35%     74.46% # Class of committed instruction. (Count)
system.cpu2.commitStats0.committedInstType::FloatCmp            2      0.00%     74.47% # Class of committed instruction. (Count)
system.cpu2.commitStats0.committedInstType::FloatCvt          417      0.02%     74.48% # Class of committed instruction. (Count)
system.cpu2.commitStats0.committedInstType::FloatMult            1      0.00%     74.48% # Class of committed instruction. (Count)
system.cpu2.commitStats0.committedInstType::FloatMultAcc            0      0.00%     74.48% # Class of committed instruction. (Count)
system.cpu2.commitStats0.committedInstType::FloatDiv            1      0.00%     74.48% # Class of committed instruction. (Count)
system.cpu2.commitStats0.committedInstType::FloatMisc            0      0.00%     74.48% # Class of committed instruction. (Count)
system.cpu2.commitStats0.committedInstType::FloatSqrt            0      0.00%     74.48% # Class of committed instruction. (Count)
system.cpu2.commitStats0.committedInstType::SimdAdd          338      0.01%     74.49% # Class of committed instruction. (Count)
system.cpu2.commitStats0.committedInstType::SimdAddAcc            0      0.00%     74.49% # Class of committed instruction. (Count)
system.cpu2.commitStats0.committedInstType::SimdAlu        16957      0.64%     75.13% # Class of committed instruction. (Count)
system.cpu2.commitStats0.committedInstType::SimdCmp           12      0.00%     75.13% # Class of committed instruction. (Count)
system.cpu2.commitStats0.committedInstType::SimdCvt          394      0.01%     75.14% # Class of committed instruction. (Count)
system.cpu2.commitStats0.committedInstType::SimdMisc         5844      0.22%     75.36% # Class of committed instruction. (Count)
system.cpu2.commitStats0.committedInstType::SimdMult            0      0.00%     75.36% # Class of committed instruction. (Count)
system.cpu2.commitStats0.committedInstType::SimdMultAcc            0      0.00%     75.36% # Class of committed instruction. (Count)
system.cpu2.commitStats0.committedInstType::SimdMatMultAcc            0      0.00%     75.36% # Class of committed instruction. (Count)
system.cpu2.commitStats0.committedInstType::SimdShift          170      0.01%     75.37% # Class of committed instruction. (Count)
system.cpu2.commitStats0.committedInstType::SimdShiftAcc            0      0.00%     75.37% # Class of committed instruction. (Count)
system.cpu2.commitStats0.committedInstType::SimdDiv            0      0.00%     75.37% # Class of committed instruction. (Count)
system.cpu2.commitStats0.committedInstType::SimdSqrt            0      0.00%     75.37% # Class of committed instruction. (Count)
system.cpu2.commitStats0.committedInstType::SimdFloatAdd         5103      0.19%     75.56% # Class of committed instruction. (Count)
system.cpu2.commitStats0.committedInstType::SimdFloatAlu            0      0.00%     75.56% # Class of committed instruction. (Count)
system.cpu2.commitStats0.committedInstType::SimdFloatCmp            0      0.00%     75.56% # Class of committed instruction. (Count)
system.cpu2.commitStats0.committedInstType::SimdFloatCvt        14536      0.55%     76.11% # Class of committed instruction. (Count)
system.cpu2.commitStats0.committedInstType::SimdFloatDiv            4      0.00%     76.11% # Class of committed instruction. (Count)
system.cpu2.commitStats0.committedInstType::SimdFloatMisc            0      0.00%     76.11% # Class of committed instruction. (Count)
system.cpu2.commitStats0.committedInstType::SimdFloatMult         5105      0.19%     76.30% # Class of committed instruction. (Count)
system.cpu2.commitStats0.committedInstType::SimdFloatMultAcc            0      0.00%     76.30% # Class of committed instruction. (Count)
system.cpu2.commitStats0.committedInstType::SimdFloatMatMultAcc            0      0.00%     76.30% # Class of committed instruction. (Count)
system.cpu2.commitStats0.committedInstType::SimdFloatSqrt            0      0.00%     76.30% # Class of committed instruction. (Count)
system.cpu2.commitStats0.committedInstType::SimdReduceAdd            0      0.00%     76.30% # Class of committed instruction. (Count)
system.cpu2.commitStats0.committedInstType::SimdReduceAlu            0      0.00%     76.30% # Class of committed instruction. (Count)
system.cpu2.commitStats0.committedInstType::SimdReduceCmp            0      0.00%     76.30% # Class of committed instruction. (Count)
system.cpu2.commitStats0.committedInstType::SimdFloatReduceAdd            0      0.00%     76.30% # Class of committed instruction. (Count)
system.cpu2.commitStats0.committedInstType::SimdFloatReduceCmp            0      0.00%     76.30% # Class of committed instruction. (Count)
system.cpu2.commitStats0.committedInstType::SimdAes            0      0.00%     76.30% # Class of committed instruction. (Count)
system.cpu2.commitStats0.committedInstType::SimdAesMix            0      0.00%     76.30% # Class of committed instruction. (Count)
system.cpu2.commitStats0.committedInstType::SimdSha1Hash            0      0.00%     76.30% # Class of committed instruction. (Count)
system.cpu2.commitStats0.committedInstType::SimdSha1Hash2            0      0.00%     76.30% # Class of committed instruction. (Count)
system.cpu2.commitStats0.committedInstType::SimdSha256Hash            0      0.00%     76.30% # Class of committed instruction. (Count)
system.cpu2.commitStats0.committedInstType::SimdSha256Hash2            0      0.00%     76.30% # Class of committed instruction. (Count)
system.cpu2.commitStats0.committedInstType::SimdShaSigma2            0      0.00%     76.30% # Class of committed instruction. (Count)
system.cpu2.commitStats0.committedInstType::SimdShaSigma3            0      0.00%     76.30% # Class of committed instruction. (Count)
system.cpu2.commitStats0.committedInstType::SimdPredAlu            0      0.00%     76.30% # Class of committed instruction. (Count)
system.cpu2.commitStats0.committedInstType::Matrix            0      0.00%     76.30% # Class of committed instruction. (Count)
system.cpu2.commitStats0.committedInstType::MatrixMov            0      0.00%     76.30% # Class of committed instruction. (Count)
system.cpu2.commitStats0.committedInstType::MatrixOP            0      0.00%     76.30% # Class of committed instruction. (Count)
system.cpu2.commitStats0.committedInstType::MemRead       307739     11.54%     87.84% # Class of committed instruction. (Count)
system.cpu2.commitStats0.committedInstType::MemWrite       210972      7.91%     95.75% # Class of committed instruction. (Count)
system.cpu2.commitStats0.committedInstType::FloatMemRead        56878      2.13%     97.88% # Class of committed instruction. (Count)
system.cpu2.commitStats0.committedInstType::FloatMemWrite        56402      2.12%    100.00% # Class of committed instruction. (Count)
system.cpu2.commitStats0.committedInstType::IprAccess            0      0.00%    100.00% # Class of committed instruction. (Count)
system.cpu2.commitStats0.committedInstType::InstPrefetch            0      0.00%    100.00% # Class of committed instruction. (Count)
system.cpu2.commitStats0.committedInstType::SimdUnitStrideLoad            0      0.00%    100.00% # Class of committed instruction. (Count)
system.cpu2.commitStats0.committedInstType::SimdUnitStrideStore            0      0.00%    100.00% # Class of committed instruction. (Count)
system.cpu2.commitStats0.committedInstType::SimdUnitStrideMaskLoad            0      0.00%    100.00% # Class of committed instruction. (Count)
system.cpu2.commitStats0.committedInstType::SimdUnitStrideMaskStore            0      0.00%    100.00% # Class of committed instruction. (Count)
system.cpu2.commitStats0.committedInstType::SimdStridedLoad            0      0.00%    100.00% # Class of committed instruction. (Count)
system.cpu2.commitStats0.committedInstType::SimdStridedStore            0      0.00%    100.00% # Class of committed instruction. (Count)
system.cpu2.commitStats0.committedInstType::SimdIndexedLoad            0      0.00%    100.00% # Class of committed instruction. (Count)
system.cpu2.commitStats0.committedInstType::SimdIndexedStore            0      0.00%    100.00% # Class of committed instruction. (Count)
system.cpu2.commitStats0.committedInstType::SimdWholeRegisterLoad            0      0.00%    100.00% # Class of committed instruction. (Count)
system.cpu2.commitStats0.committedInstType::SimdWholeRegisterStore            0      0.00%    100.00% # Class of committed instruction. (Count)
system.cpu2.commitStats0.committedInstType::SimdUnitStrideFaultOnlyFirstLoad            0      0.00%    100.00% # Class of committed instruction. (Count)
system.cpu2.commitStats0.committedInstType::SimdUnitStrideSegmentedLoad            0      0.00%    100.00% # Class of committed instruction. (Count)
system.cpu2.commitStats0.committedInstType::SimdUnitStrideSegmentedStore            0      0.00%    100.00% # Class of committed instruction. (Count)
system.cpu2.commitStats0.committedInstType::SimdExt            0      0.00%    100.00% # Class of committed instruction. (Count)
system.cpu2.commitStats0.committedInstType::SimdFloatExt            0      0.00%    100.00% # Class of committed instruction. (Count)
system.cpu2.commitStats0.committedInstType::SimdConfig            0      0.00%    100.00% # Class of committed instruction. (Count)
system.cpu2.commitStats0.committedInstType::total      2666432                       # Class of committed instruction. (Count)
system.cpu2.commitStats0.committedControl::IsControl       283410                       # Class of control type instructions committed (Count)
system.cpu2.commitStats0.committedControl::IsDirectControl       244769                       # Class of control type instructions committed (Count)
system.cpu2.commitStats0.committedControl::IsIndirectControl        38612                       # Class of control type instructions committed (Count)
system.cpu2.commitStats0.committedControl::IsCondControl       202977                       # Class of control type instructions committed (Count)
system.cpu2.commitStats0.committedControl::IsUncondControl        80404                       # Class of control type instructions committed (Count)
system.cpu2.commitStats0.committedControl::IsCall        24338                       # Class of control type instructions committed (Count)
system.cpu2.commitStats0.committedControl::IsReturn        24323                       # Class of control type instructions committed (Count)
system.cpu2.exec_context.thread_0.numMatAluAccesses            0                       # Number of matrix alu accesses (Count)
system.cpu2.exec_context.thread_0.numCallsReturns        48661                       # Number of times a function call or return occured (Count)
system.cpu2.exec_context.thread_0.numMatInsts            0                       # Number of matrix instructions (Count)
system.cpu2.exec_context.thread_0.numIdleCycles 203503899.726098                       # Number of idle cycles (Cycle)
system.cpu2.exec_context.thread_0.numBusyCycles 12026200.273902                       # Number of busy cycles (Cycle)
system.cpu2.exec_context.thread_0.notIdleFraction     0.055798                       # Percentage of non-idle cycles (Ratio)
system.cpu2.exec_context.thread_0.idleFraction     0.944202                       # Percentage of idle cycles (Ratio)
system.cpu2.executeStats0.numInsts                  0                       # Number of executed instructions (Count)
system.cpu2.executeStats0.numNop                    0                       # Number of nop insts executed (Count)
system.cpu2.executeStats0.numBranches               0                       # Number of branches executed (Count)
system.cpu2.executeStats0.numLoadInsts              0                       # Number of load instructions executed (Count)
system.cpu2.executeStats0.numStoreInsts        631991                       # Number of stores executed (Count)
system.cpu2.executeStats0.instRate                  0                       # Inst execution rate ((Count/Cycle))
system.cpu2.executeStats0.numFpAluAccesses       172039                       # Number of float alu accesses (Count)
system.cpu2.executeStats0.numFpRegReads        159925                       # Number of times the floating registers were read (Count)
system.cpu2.executeStats0.numFpRegWrites       105571                       # Number of times the floating registers were written (Count)
system.cpu2.executeStats0.numIntAluAccesses      2540819                       # Number of integer alu accesses (Count)
system.cpu2.executeStats0.numIntRegReads      2732821                       # Number of times the integer registers were read (Count)
system.cpu2.executeStats0.numIntRegWrites      1742024                       # Number of times the integer registers were written (Count)
system.cpu2.executeStats0.numMemRefs           631991                       # Number of memory refs (Count)
system.cpu2.executeStats0.numMiscRegReads      1227733                       # Number of times the Misc registers were read (Count)
system.cpu2.executeStats0.numMiscRegWrites          254                       # Number of times the Misc registers were written (Count)
system.cpu2.executeStats0.numVecAluAccesses            0                       # Number of vector alu accesses (Count)
system.cpu2.executeStats0.numDiscardedOps            0                       # Number of ops (including micro ops) which were discarded before commit (Count)
system.cpu2.fetchStats0.numInsts              1409234                       # Number of instructions fetched (thread level) (Count)
system.cpu2.fetchStats0.numOps                2666432                       # Number of ops (including micro ops) fetched (thread level) (Count)
system.cpu2.fetchStats0.fetchRate            0.006538                       # Number of inst fetches per cycle ((Count/Cycle))
system.cpu2.fetchStats0.numBranches            283410                       # Number of branches fetched (Count)
system.cpu2.fetchStats0.branchRate           0.001315                       # Number of branch fetches per cycle (Ratio)
system.cpu2.fetchStats0.numFetchSuspends            0                       # Number of times Execute suspended instruction fetching (Count)
system.cpu2.interrupts.clk_domain.clock          8000                       # Clock period in ticks (Tick)
system.cpu2.mmu.dtb.rdAccesses                 364641                       # TLB accesses on read requests (Count)
system.cpu2.mmu.dtb.wrAccesses                 267636                       # TLB accesses on write requests (Count)
system.cpu2.mmu.dtb.rdMisses                     1121                       # TLB misses on read requests (Count)
system.cpu2.mmu.dtb.wrMisses                      252                       # TLB misses on write requests (Count)
system.cpu2.mmu.dtb.walker.power_state.pwrStateResidencyTicks::UNDEFINED 108338390000                       # Cumulative time (in ticks) in various power states (Tick)
system.cpu2.mmu.itb.rdAccesses                      0                       # TLB accesses on read requests (Count)
system.cpu2.mmu.itb.wrAccesses                1924277                       # TLB accesses on write requests (Count)
system.cpu2.mmu.itb.rdMisses                        0                       # TLB misses on read requests (Count)
system.cpu2.mmu.itb.wrMisses                      289                       # TLB misses on write requests (Count)
system.cpu2.mmu.itb.walker.power_state.pwrStateResidencyTicks::UNDEFINED 108338390000                       # Cumulative time (in ticks) in various power states (Tick)
system.cpu2.power_state.numTransitions              9                       # Number of power state transitions (Count)
system.cpu2.power_state.ticksClkGated::samples            5                       # Distribution of time spent in the clock gated state (Tick)
system.cpu2.power_state.ticksClkGated::mean    513564900                       # Distribution of time spent in the clock gated state (Tick)
system.cpu2.power_state.ticksClkGated::stdev 844998119.686621                       # Distribution of time spent in the clock gated state (Tick)
system.cpu2.power_state.ticksClkGated::1000-5e+10            5    100.00%    100.00% # Distribution of time spent in the clock gated state (Tick)
system.cpu2.power_state.ticksClkGated::min_value      5709500                       # Distribution of time spent in the clock gated state (Tick)
system.cpu2.power_state.ticksClkGated::max_value   1961027000                       # Distribution of time spent in the clock gated state (Tick)
system.cpu2.power_state.ticksClkGated::total            5                       # Distribution of time spent in the clock gated state (Tick)
system.cpu2.power_state.pwrStateResidencyTicks::ON 105770565500                       # Cumulative time (in ticks) in various power states (Tick)
system.cpu2.power_state.pwrStateResidencyTicks::CLK_GATED   2567824500                       # Cumulative time (in ticks) in various power states (Tick)
system.cpu2.thread_0.numInsts                       0                       # Number of Instructions committed (Count)
system.cpu2.thread_0.numOps                         0                       # Number of Ops committed (Count)
system.cpu2.thread_0.numMemRefs                     0                       # Number of Memory References (Count)
system.cpu3.allLatencyDist::bucket_size         10000                       # delay distribution for all (Unspecified)
system.cpu3.allLatencyDist::min_bucket              0                       # delay distribution for all (Unspecified)
system.cpu3.allLatencyDist::max_bucket        1599999                       # delay distribution for all (Unspecified)
system.cpu3.allLatencyDist::samples             12288                       # delay distribution for all (Unspecified)
system.cpu3.allLatencyDist::mean         5602297.037760                       # delay distribution for all (Unspecified)
system.cpu3.allLatencyDist::stdev        2990483.923330                       # delay distribution for all (Unspecified)
system.cpu3.allLatencyDist::underflows              0      0.00%      0.00% # delay distribution for all (Unspecified)
system.cpu3.allLatencyDist               |           0      0.00%      0.00% |           0      0.00%      0.00% |           0      0.00%      0.00% |           0      0.00%      0.00% |           0      0.00%      0.00% |           0      0.00%      0.00% |           0      0.00%      0.00% |           0      0.00%      0.00% |           0      0.00%      0.00% |           0      0.00%      0.00% |           0      0.00%      0.00% |           0      0.00%      0.00% |           0      0.00%      0.00% |           0      0.00%      0.00% |           0      0.00%      0.00% |           0      0.00%      0.00% |           0      0.00%      0.00% |           0      0.00%      0.00% |           0      0.00%      0.00% |           0      0.00%      0.00% |           0      0.00%      0.00% |           0      0.00%      0.00% |           0      0.00%      0.00% |           0      0.00%      0.00% |           0      0.00%      0.00% |           0      0.00%      0.00% |           0      0.00%      0.00% |           0      0.00%      0.00% |           0      0.00%      0.00% |           0      0.00%      0.00% |           0      0.00%      0.00% |           0      0.00%      0.00% |           0      0.00%      0.00% |           0      0.00%      0.00% |           6      0.05%      0.05% |           7      0.06%      0.11% |           8      0.07%      0.17% |           2      0.02%      0.19% |           4      0.03%      0.22% |           2      0.02%      0.24% |           2      0.02%      0.25% |           8      0.07%      0.32% |          76      0.62%      0.94% |          16      0.13%      1.07% |           5      0.04%      1.11% |          20      0.16%      1.27% |           6      0.05%      1.32% |          14      0.11%      1.43% |           9      0.07%      1.51% |           8      0.07%      1.57% |          12      0.10%      1.67% |          12      0.10%      1.77% |          13      0.11%      1.87% |          26      0.21%      2.08% |          27      0.22%      2.30% |          29      0.24%      2.54% |          21      0.17%      2.71% |           9      0.07%      2.78% |           8      0.07%      2.85% |           0      0.00%      2.85% |           8      0.07%      2.91% |           2      0.02%      2.93% |           4      0.03%      2.96% |           3      0.02%      2.99% |           4      0.03%      3.02% |          15      0.12%      3.14% |           4      0.03%      3.17% |           3      0.02%      3.20% |           8      0.07%      3.26% |           4      0.03%      3.30% |           0      0.00%      3.30% |           0      0.00%      3.30% |           1      0.01%      3.30% |           2      0.02%      3.32% |           0      0.00%      3.32% |           0      0.00%      3.32% |           1      0.01%      3.33% |           0      0.00%      3.33% |           0      0.00%      3.33% |           4      0.03%      3.36% |           4      0.03%      3.39% |           2      0.02%      3.41% |           0      0.00%      3.41% |           4      0.03%      3.44% |           2      0.02%      3.46% |           8      0.07%      3.52% |          96      0.78%      4.31% |          14      0.11%      4.42% |          14      0.11%      4.53% |          10      0.08%      4.61% |          10      0.08%      4.70% |           8      0.07%      4.76% |          14      0.11%      4.87% |          10      0.08%      4.96% |          13      0.11%      5.06% |          11      0.09%      5.15% |          22      0.18%      5.33% |          14      0.11%      5.44% |          15      0.12%      5.57% |          11      0.09%      5.66% |          15      0.12%      5.78% |           5      0.04%      5.82% |           4      0.03%      5.85% |           0      0.00%      5.85% |           4      0.03%      5.88% |           2      0.02%      5.90% |           6      0.05%      5.95% |           6      0.05%      6.00% |           1      0.01%      6.01% |           5      0.04%      6.05% |           2      0.02%      6.06% |           5      0.04%      6.10% |           3      0.02%      6.13% |           2      0.02%      6.14% |           0      0.00%      6.14% |           4      0.03%      6.18% |           0      0.00%      6.18% |           0      0.00%      6.18% |           0      0.00%      6.18% |           2      0.02%      6.19% |           0      0.00%      6.19% |           0      0.00%      6.19% |          10      0.08%      6.27% |           8      0.07%      6.34% |           8      0.07%      6.40% |          18      0.15%      6.55% |          16      0.13%      6.68% |           8      0.07%      6.75% |          12      0.10%      6.84% |          36      0.29%      7.14% |         210      1.71%      8.85% |          43      0.35%      9.20% |          15      0.12%      9.32% |          24      0.20%      9.51% |           8      0.07%      9.58% |          18      0.15%      9.72% |          23      0.19%      9.91% |          15      0.12%     10.03% |          12      0.10%     10.13% |          11      0.09%     10.22% |          19      0.15%     10.38% |          18      0.15%     10.52% |          22      0.18%     10.70% |          21      0.17%     10.87% |          19      0.15%     11.03% |          11      0.09%     11.12% |           2      0.02%     11.13% |           0      0.00%     11.13% |           2      0.02%     11.15% |           5      0.04%     11.19% |           0      0.00%     11.19% |           2      0.02%     11.21% |           3      0.02%     11.23% |           1      0.01%     11.24% |           4      0.03%     11.27% |           4      0.03%     11.30% |           1      0.01%     11.31% |           7      0.06%     11.37% |           5      0.04%     11.41% |           0      0.00%     11.41% # delay distribution for all (Unspecified)
system.cpu3.allLatencyDist::overflows           10886     88.59%    100.00% # delay distribution for all (Unspecified)
system.cpu3.allLatencyDist::min_value          343000                       # delay distribution for all (Unspecified)
system.cpu3.allLatencyDist::max_value        15843000                       # delay distribution for all (Unspecified)
system.cpu3.allLatencyDist::total               12288                       # delay distribution for all (Unspecified)
system.cpu3.loadLatencyDist::bucket_size        10000                       # delay distribution for loads (Unspecified)
system.cpu3.loadLatencyDist::min_bucket             0                       # delay distribution for loads (Unspecified)
system.cpu3.loadLatencyDist::max_bucket       1599999                       # delay distribution for loads (Unspecified)
system.cpu3.loadLatencyDist::samples             8192                       # delay distribution for loads (Unspecified)
system.cpu3.loadLatencyDist::mean        6179686.401367                       # delay distribution for loads (Unspecified)
system.cpu3.loadLatencyDist::stdev       3139145.998667                       # delay distribution for loads (Unspecified)
system.cpu3.loadLatencyDist::underflows             0      0.00%      0.00% # delay distribution for loads (Unspecified)
system.cpu3.loadLatencyDist              |           0      0.00%      0.00% |           0      0.00%      0.00% |           0      0.00%      0.00% |           0      0.00%      0.00% |           0      0.00%      0.00% |           0      0.00%      0.00% |           0      0.00%      0.00% |           0      0.00%      0.00% |           0      0.00%      0.00% |           0      0.00%      0.00% |           0      0.00%      0.00% |           0      0.00%      0.00% |           0      0.00%      0.00% |           0      0.00%      0.00% |           0      0.00%      0.00% |           0      0.00%      0.00% |           0      0.00%      0.00% |           0      0.00%      0.00% |           0      0.00%      0.00% |           0      0.00%      0.00% |           0      0.00%      0.00% |           0      0.00%      0.00% |           0      0.00%      0.00% |           0      0.00%      0.00% |           0      0.00%      0.00% |           0      0.00%      0.00% |           0      0.00%      0.00% |           0      0.00%      0.00% |           0      0.00%      0.00% |           0      0.00%      0.00% |           0      0.00%      0.00% |           0      0.00%      0.00% |           0      0.00%      0.00% |           0      0.00%      0.00% |           4      0.05%      0.05% |           4      0.05%      0.10% |           4      0.05%      0.15% |           1      0.01%      0.16% |           2      0.02%      0.18% |           1      0.01%      0.20% |           1      0.01%      0.21% |           4      0.05%      0.26% |          38      0.46%      0.72% |           8      0.10%      0.82% |           3      0.04%      0.85% |          10      0.12%      0.98% |           3      0.04%      1.01% |           7      0.09%      1.10% |           5      0.06%      1.16% |           4      0.05%      1.21% |           6      0.07%      1.28% |           6      0.07%      1.35% |           7      0.09%      1.44% |          13      0.16%      1.60% |          14      0.17%      1.77% |          18      0.22%      1.99% |          11      0.13%      2.12% |           5      0.06%      2.19% |           4      0.05%      2.23% |           0      0.00%      2.23% |           4      0.05%      2.28% |           1      0.01%      2.29% |           2      0.02%      2.32% |           2      0.02%      2.34% |           3      0.04%      2.38% |          11      0.13%      2.51% |           3      0.04%      2.55% |           2      0.02%      2.58% |           8      0.10%      2.67% |           3      0.04%      2.71% |           0      0.00%      2.71% |           0      0.00%      2.71% |           1      0.01%      2.72% |           1      0.01%      2.73% |           0      0.00%      2.73% |           0      0.00%      2.73% |           1      0.01%      2.75% |           0      0.00%      2.75% |           0      0.00%      2.75% |           2      0.02%      2.77% |           2      0.02%      2.80% |           1      0.01%      2.81% |           0      0.00%      2.81% |           2      0.02%      2.83% |           1      0.01%      2.84% |           4      0.05%      2.89% |          48      0.59%      3.48% |           7      0.09%      3.56% |           7      0.09%      3.65% |           5      0.06%      3.71% |           5      0.06%      3.77% |           4      0.05%      3.82% |           8      0.10%      3.92% |           6      0.07%      3.99% |           7      0.09%      4.08% |           7      0.09%      4.16% |          12      0.15%      4.31% |           7      0.09%      4.39% |           8      0.10%      4.49% |           6      0.07%      4.57% |           9      0.11%      4.68% |           3      0.04%      4.71% |           2      0.02%      4.74% |           0      0.00%      4.74% |           2      0.02%      4.76% |           1      0.01%      4.77% |           3      0.04%      4.81% |           3      0.04%      4.85% |           1      0.01%      4.86% |           4      0.05%      4.91% |           2      0.02%      4.93% |           3      0.04%      4.97% |           3      0.04%      5.00% |           2      0.02%      5.03% |           0      0.00%      5.03% |           2      0.02%      5.05% |           0      0.00%      5.05% |           0      0.00%      5.05% |           0      0.00%      5.05% |           1      0.01%      5.07% |           0      0.00%      5.07% |           0      0.00%      5.07% |           5      0.06%      5.13% |           4      0.05%      5.18% |           4      0.05%      5.22% |           9      0.11%      5.33% |           8      0.10%      5.43% |           4      0.05%      5.48% |           6      0.07%      5.55% |          18      0.22%      5.77% |         105      1.28%      7.06% |          22      0.27%      7.32% |           8      0.10%      7.42% |          12      0.15%      7.57% |           4      0.05%      7.62% |           9      0.11%      7.73% |          12      0.15%      7.87% |           9      0.11%      7.98% |           6      0.07%      8.06% |           7      0.09%      8.14% |          11      0.13%      8.28% |           9      0.11%      8.39% |          11      0.13%      8.52% |          12      0.15%      8.67% |          11      0.13%      8.80% |           7      0.09%      8.89% |           1      0.01%      8.90% |           0      0.00%      8.90% |           1      0.01%      8.91% |           3      0.04%      8.95% |           0      0.00%      8.95% |           1      0.01%      8.96% |           2      0.02%      8.98% |           1      0.01%      9.00% |           4      0.05%      9.05% |           2      0.02%      9.07% |           1      0.01%      9.08% |           6      0.07%      9.16% |           3      0.04%      9.19% |           0      0.00%      9.19% # delay distribution for loads (Unspecified)
system.cpu3.loadLatencyDist::overflows           7439     90.81%    100.00% # delay distribution for loads (Unspecified)
system.cpu3.loadLatencyDist::min_value         343000                       # delay distribution for loads (Unspecified)
system.cpu3.loadLatencyDist::max_value       15843000                       # delay distribution for loads (Unspecified)
system.cpu3.loadLatencyDist::total               8192                       # delay distribution for loads (Unspecified)
system.cpu3.storeLatencyDist::bucket_size        10000                       # delay distribution for stores (Unspecified)
system.cpu3.storeLatencyDist::min_bucket            0                       # delay distribution for stores (Unspecified)
system.cpu3.storeLatencyDist::max_bucket      1599999                       # delay distribution for stores (Unspecified)
system.cpu3.storeLatencyDist::samples            4096                       # delay distribution for stores (Unspecified)
system.cpu3.storeLatencyDist::mean       4447518.310547                       # delay distribution for stores (Unspecified)
system.cpu3.storeLatencyDist::stdev      2263119.331979                       # delay distribution for stores (Unspecified)
system.cpu3.storeLatencyDist::underflows            0      0.00%      0.00% # delay distribution for stores (Unspecified)
[...]
system.cpu3.cacheBlockRoundTrip7::overflows            0                       # Coalsr-to-coalsr time for the Nth cache block in an inst (Unspecified)
system.cpu3.cacheBlockRoundTrip7::min_value            0                       # Coalsr-to-coalsr time for the Nth cache block in an inst (Unspecified)
system.cpu3.cacheBlockRoundTrip7::max_value            0                       # Coalsr-to-coalsr time for the Nth cache block in an inst (Unspecified)
system.cpu3.cacheBlockRoundTrip7::total             0                       # Coalsr-to-coalsr time for the Nth cache block in an inst (Unspecified)
system.cpu3.cacheBlockRoundTrip8::bucket_size        10000                       # Coalsr-to-coalsr time for the Nth cache block in an inst (Unspecified)
system.cpu3.cacheBlockRoundTrip8::min_bucket            0                       # Coalsr-to-coalsr time for the Nth cache block in an inst (Unspecified)
system.cpu3.cacheBlockRoundTrip8::max_bucket      1599999                       # Coalsr-to-coalsr time for the Nth cache block in an inst (Unspecified)
system.cpu3.cacheBlockRoundTrip8::samples            0                       # Coalsr-to-coalsr time for the Nth cache block in an inst (Unspecified)
system.cpu3.cacheBlockRoundTrip8::mean            nan                       # Coalsr-to-coalsr time for the Nth cache block in an inst (Unspecified)
system.cpu3.cacheBlockRoundTrip8::stdev           nan                       # Coalsr-to-coalsr time for the Nth cache block in an inst (Unspecified)
system.cpu3.cacheBlockRoundTrip8::underflows            0                       # Coalsr-to-coalsr time for the Nth cache block in an inst (Unspecified)
system.cpu3.cacheBlockRoundTrip8         |           0                       |           0                       |           0                       |           0                       |           0                       |           0                       |           0                       |           0                       |           0                       |           0                       |           0                       |           0                       |           0                       |           0                       |           0                       |           0                       |           0                       |           0                       |           0                       |           0                       |           0                       |           0                       |           0                       |           0                       |           0                       |           0                       |           0                       |           0                       |           0                       |           0                       |           0                       |           0                       |           0                       |           0                       |           0                       |           0                       |           0                       |           0                       |           0                       |           0                       |           0                       |           0                       |           0                       |           0                       |           0                       |           0                       |           0                       |           0                       |           0                       |           0                       |           0                       |           0                       |           0                       |           0                       |           0                       |           0                       |           0                       |           0                       |           0                       |           0                       |           0                       |           0                       |           0                       |           0                       |           0                       |           0                       |           0                       |           0                       |           0                       |           0                       |           0                       |           0                       |           0                       |           0                       |           0                       |           0                       |           0                       |           0                       |           0                       |           0                       |           0                       |           0                       |           0                       |           0                       |           0                       |           0                       |           0                       |           0                       |           0                       |           0                       |           0                       |           0                       |           0                       |           0                       |           0                       |           0                       |           0                       |           0                       |           0                       |           0                       |           0                       |           0                       |           0                       |           0                       |           0                       |           0                       |           0                       |           0                       |           0                       |           0                       |           0                       |           0                       |           0                       |           0                       |           0                       |           0                       |           0                       |           0                       |           0                       |           0                       |           0                       |           0                       |           0                       |           0                       |           0                       |           0                       |           0                       |           0                       |           0                       |           0                       |           0                       |           0                       |           0                       |           0                       |           0                       |           0                       |           0                       |           0                       |           0                       |           0                       |           0                       |           0                       |           0                       |           0                       |           0                       |           0                       |           0                       |           0                       |           0                       |           0                       |           0                       |           0                       |           0                       |           0                       |           0                       |           0                       |           0                       |           0                       |           0                       |           0                       # Coalsr-to-coalsr time for the Nth cache block in an inst (Unspecified)
system.cpu3.cacheBlockRoundTrip8::overflows            0                       # Coalsr-to-coalsr time for the Nth cache block in an inst (Unspecified)
system.cpu3.cacheBlockRoundTrip8::min_value            0                       # Coalsr-to-coalsr time for the Nth cache block in an inst (Unspecified)
system.cpu3.cacheBlockRoundTrip8::max_value            0                       # Coalsr-to-coalsr time for the Nth cache block in an inst (Unspecified)
system.cpu3.cacheBlockRoundTrip8::total             0                       # Coalsr-to-coalsr time for the Nth cache block in an inst (Unspecified)
system.cpu3.cacheBlockRoundTrip9::bucket_size        10000                       # Coalsr-to-coalsr time for the Nth cache block in an inst (Unspecified)
system.cpu3.cacheBlockRoundTrip9::min_bucket            0                       # Coalsr-to-coalsr time for the Nth cache block in an inst (Unspecified)
system.cpu3.cacheBlockRoundTrip9::max_bucket      1599999                       # Coalsr-to-coalsr time for the Nth cache block in an inst (Unspecified)
system.cpu3.cacheBlockRoundTrip9::samples            0                       # Coalsr-to-coalsr time for the Nth cache block in an inst (Unspecified)
system.cpu3.cacheBlockRoundTrip9::mean            nan                       # Coalsr-to-coalsr time for the Nth cache block in an inst (Unspecified)
system.cpu3.cacheBlockRoundTrip9::stdev           nan                       # Coalsr-to-coalsr time for the Nth cache block in an inst (Unspecified)
system.cpu3.cacheBlockRoundTrip9::underflows            0                       # Coalsr-to-coalsr time for the Nth cache block in an inst (Unspecified)
system.cpu3.cacheBlockRoundTrip9         |           0                       |           0                       |           0                       |           0                       |           0                       |           0                       |           0                       |           0                       |           0                       |           0                       |           0                       |           0                       |           0                       |           0                       |           0                       |           0                       |           0                       |           0                       |           0                       |           0                       |           0                       |           0                       |           0                       |           0                       |           0                       |           0                       |           0                       |           0                       |           0                       |           0                       |           0                       |           0                       |           0                       |           0                       |           0                       |           0                       |           0                       |           0                       |           0                       |           0                       |           0                       |           0                       |           0                       |           0                       |           0                       |           0                       |           0                       |           0                       |           0                       |           0                       |           0                       |           0                       |           0                       |           0                       |           0                       |           0                       |           0                       |           0                       |           0                       |           0                       |           0                       |           0                       |           0                       |           0                       |           0                       |           0                       |           0                       |           0                       |           0                       |           0                       |           0                       |           0                       |           0                       |           0                       |           0                       |           0                       |           0                       |           0                       |           0                       |           0                       |           0                       |           0                       |           0                       |           0                       |           0                       |           0                       |           0                       |           0                       |           0                       |           0                       |           0                       |           0                       |           0                       |           0                       |           0                       |           0                       |           0                       |           0                       |           0                       |           0                       |           0                       |           0                       |           0                       |           0                       |           0                       |           0                       |           0                       |           0                       |           0                       |           0                       |           0                       |           0                       |           0                       |           0                       |           0                       |           0                       |           0                       |           0                       |           0                       |           0                       |           0                       |           0                       |           0                       |           0                       |           0                       |           0                       |           0                       |           0                       |           0                       |           0                       |           0                       |           0                       |           0                       |           0                       |           0                       |           0                       |           0                       |           0                       |           0                       |           0                       |           0                       |           0                       |           0                       |           0                       |           0                       |           0                       |           0                       |           0                       |           0                       |           0                       |           0                       |           0                       |           0                       |           0                       |           0                       |           0                       |           0                       |           0                       |           0                       |           0                       # Coalsr-to-coalsr time for the Nth cache block in an inst (Unspecified)
system.cpu3.cacheBlockRoundTrip9::overflows            0                       # Coalsr-to-coalsr time for the Nth cache block in an inst (Unspecified)
system.cpu3.cacheBlockRoundTrip9::min_value            0                       # Coalsr-to-coalsr time for the Nth cache block in an inst (Unspecified)
system.cpu3.cacheBlockRoundTrip9::max_value            0                       # Coalsr-to-coalsr time for the Nth cache block in an inst (Unspecified)
system.cpu3.cacheBlockRoundTrip9::total             0                       # Coalsr-to-coalsr time for the Nth cache block in an inst (Unspecified)

---------- End Simulation Statistics   ----------
